Circuit: * C:\dev\paddle\kicad\amp01.asc

Direct Newton iteration for .op point succeeded.

Date: Wed Sep 27 00:15:12 2017
Total elapsed time: 4.974 seconds.

tnom = 27
temp = 27
method = modified trap
totiter = 200037
traniter = 200034
tranpoints = 100018
accept = 100018
rejected = 0
matrix size = 37
fillins = 27
solver = Normal
Matrix Compiler1: 2.84 KB object code size  0.7/0.7/[0.3]
Matrix Compiler2: off  [0.2]/0.7/0.3

