Circuit: * C:\dev\paddle\kicad\amp00.asc

Direct Newton iteration for .op point succeeded.

Date: Tue Sep 26 21:22:42 2017
Total elapsed time: 0.295 seconds.

tnom = 27
temp = 27
method = modified trap
totiter = 6793
traniter = 6790
tranpoints = 3396
accept = 2854
rejected = 542
matrix size = 34
fillins = 23
solver = Normal
Matrix Compiler1: 2.48 KB object code size  0.6/0.5/[0.3]
Matrix Compiler2: 2.70 KB object code size  0.3/0.6/[0.2]

