Circuit: * C:\dev\paddle\kicad\amp02.asc

WARNING: Less than two connections to node N002.  This node is used by R14.
Direct Newton iteration for .op point succeeded.

Date: Tue Oct 17 22:33:03 2017
Total elapsed time: 5.241 seconds.

tnom = 27
temp = 27
method = modified trap
totiter = 200645
traniter = 200642
tranpoints = 100322
accept = 100227
rejected = 95
matrix size = 32
fillins = 10
solver = Normal
Matrix Compiler1: 1.72 KB object code size  0.6/0.3/[0.2]
Matrix Compiler2: 2.33 KB object code size  0.2/0.5/[0.1]

