Circuit: * C:\dev\paddle\kicad\amp loop gain .asc

WARNING: Less than two connections to node +V.  This node is used by V1.
WARNING: Less than two connections to node -V.  This node is used by V5.
Direct Newton iteration failed to find .op point.  (Use ".option noopiter" to skip.)
Starting Gmin stepping
Increasing initial diagonal Gmin to 100
Gmin = 100
Gmin = 10.7374
Gmin = 1.15292
Gmin = 0.123794
Gmin = 0.0132923
Gmin = 0.00142725
Gmin = 0.00015325
Gmin = 1.6455e-005
Gmin = 1.76685e-006
Gmin = 1.89714e-007
vernier = 0.5
vernier = 0.25
vernier = 0.125
vernier = 0.0625
vernier = 0.03125
Gmin = 9.63805e-008
vernier = 0.0416667
Gmin = 8.77945e-008
vernier = 0.0555555
vernier = 0.074074
Gmin = 7.51016e-008
vernier = 0.0987653
vernier = 0.131687
Gmin = 5.86163e-008
vernier = 0.175583
Gmin = 3.97929e-008
vernier = 0.23411
vernier = 0.312147
Gmin = 2.09439e-008
vernier = 0.416196
vernier = 0.554928
Gmin = 7.67394e-009
vernier = 0.739903
Gmin = 1.64845e-009
vernier = 0.986537
vernier = 1
Gmin = 1.79888e-010
Gmin = 1.93153e-011
Gmin = 2.07396e-012
Gmin = 2.2269e-013
Gmin = 0
Gmin stepping succeeded in finding the operating point.

.step prb=-1
.step prb=1

Date: Thu Oct 19 21:22:36 2017
Total elapsed time: 0.145 seconds.

tnom = 27
temp = 27
method = trap
totiter = 1281
traniter = 0
tranpoints = 0
accept = 0
rejected = 0
matrix size = 29
fillins = 36
solver = Normal
Matrix Compiler1:     143 opcodes
Matrix Compiler2: off  [0.3]/0.5/0.5

