Circuit: * C:\dev\paddle\kicad\amp02stab.asc

Direct Newton iteration failed to find .op point.  (Use ".option noopiter" to skip.)
Starting Gmin stepping
Increasing initial diagonal Gmin to 100
Gmin = 100
Gmin = 10.7374
Gmin = 1.15292
Gmin = 0.123794
Gmin = 0.0132923
Gmin = 0.00142725
Gmin = 0.00015325
Gmin = 1.6455e-005
Gmin = 1.76685e-006
Gmin = 1.89714e-007
vernier = 0.5
vernier = 0.25
Gmin = 8.09808e-008
vernier = 0.333333
vernier = 0.444444
Gmin = 3.59448e-008
vernier = 0.592592
Gmin = 1.02948e-008
vernier = 0.790123
vernier = 1
Gmin = 1.42975e-009
Gmin = 1.53518e-010
Gmin = 1.64839e-011
Gmin = 1.76994e-012
Gmin = 1.90046e-013
Gmin = 0
Gmin stepping succeeded in finding the operating point.

.step cload=1e-012
.step cload=7.5e-010

Date: Wed Oct 18 22:42:50 2017
Total elapsed time: 0.099 seconds.

tnom = 27
temp = 27
method = trap
totiter = 903
traniter = 0
tranpoints = 0
accept = 0
rejected = 0
matrix size = 22
fillins = 15
solver = Normal
Matrix Compiler1:     102 opcodes
Matrix Compiler2: off  [0.3]/0.6/0.8

