Circuit: * C:\dev\paddle\kicad\amp01.asc

Direct Newton iteration for .op point succeeded.

Date: Tue Oct 17 22:08:10 2017
Total elapsed time: 5.231 seconds.

tnom = 27
temp = 27
method = modified trap
totiter = 200037
traniter = 200034
tranpoints = 100018
accept = 100018
rejected = 0
matrix size = 37
fillins = 27
solver = Normal
Matrix Compiler1: 2.84 KB object code size  1.8/1.3/[0.5]
Matrix Compiler2: 3.01 KB object code size  0.7/1.5/[0.3]

