Circuit: * C:\dev\paddle\kicad\amp02.asc

WARNING: Less than two connections to node N002.  This node is used by R14.
Direct Newton iteration for .op point succeeded.

Date: Wed Oct 18 20:21:48 2017
Total elapsed time: 1.069 seconds.

tnom = 27
temp = 27
method = modified trap
totiter = 200539
traniter = 200536
tranpoints = 100269
accept = 100200
rejected = 69
matrix size = 32
fillins = 10
solver = Normal
Matrix Compiler1: 1.72 KB object code size  0.7/0.5/[0.1]
Matrix Compiler2: 2.33 KB object code size  0.5/0.6/[0.3]

