Questionable use of curly braces in "vi2 x2 n003 0 ac {0)}"
    Error: garbage at end of expression in: "0[)]"
Circuit: * C:\dev\paddle\sim\behavioral linear opamp stability 01.asc

.step prb=-1
.step prb=1

Date: Fri Oct 20 23:32:20 2017
Total elapsed time: 0.087 seconds.

tnom = 27
temp = 27
method = trap
totiter = 0
traniter = 0
tranpoints = 0
accept = 0
rejected = 0
matrix size = 24
fillins = 24
solver = Normal

