Questionable use of curly braces in "vi2 x2 n003 0 ac {0)}"
    Error: garbage at end of expression in: "0[)]"
Questionable use of curly braces in "vi3 n005 0 0 ac {1)}"
    Error: garbage at end of expression in: "1[)]"
Circuit: * C:\dev\paddle\sim\behavioral linear opamp stability 03.asc

Direct Newton iteration failed to find .op point.  (Use ".option noopiter" to skip.)
Starting Gmin stepping
Gmin = 10
Gmin = 1.07374
Gmin = 0.115292
Gmin = 0.0123794
Gmin = 0.00132923
Gmin = 0.000142725
Gmin = 1.5325e-005
Gmin = 1.6455e-006
Gmin = 1.76685e-007
Gmin = 1.89714e-008
Gmin = 2.03704e-009
Gmin = 2.18725e-010
Gmin = 2.34854e-011
Gmin = 2.52173e-012
Gmin = 2.70769e-013
Gmin = 0
Gmin stepping succeeded in finding the operating point.

.step rs=1
.step rs=10
.step rs=100

Date: Sat Oct 21 00:26:22 2017
Total elapsed time: 0.504 seconds.

tnom = 27
temp = 27
method = trap
totiter = 366
traniter = 0
tranpoints = 0
accept = 0
rejected = 0
matrix size = 28
fillins = 17
solver = Normal
Matrix Compiler1:      97 opcodes
Matrix Compiler2: off  [0.5]/1.0/1.3

