Questionable use of curly braces in "vi2 x2 n003 0 ac {0)}"
    Error: garbage at end of expression in: "0[)]"
Questionable use of curly braces in "vi3 n005 0 0 ac {1)}"
    Error: garbage at end of expression in: "1[)]"
Circuit: * C:\dev\paddle\sim\behavioral linear opamp stability 02.asc

.step rs=1
.step rs=10
.step rs=100

Date: Sat Oct 21 00:14:56 2017
Total elapsed time: 0.189 seconds.

tnom = 27
temp = 27
method = trap
totiter = 0
traniter = 0
tranpoints = 0
accept = 0
rejected = 0
matrix size = 36
fillins = 36
solver = Normal

