Circuit: * C:\dev\paddle\sim\test\system analysis02t.asc

Direct Newton iteration for .op point succeeded.
Ignoring empty pin current: Ix(sys1:loop2)
Ignoring empty pin current: Ix(sys2:loop2)
Ignoring empty pin current: Ix(sys3:loop2)
Ignoring empty pin current: Ix(sys1:loop2)
Ignoring empty pin current: Ix(sys2:loop2)
Ignoring empty pin current: Ix(sys3:loop2)

Date: Sun Oct 22 21:34:31 2017
Total elapsed time: 0.183 seconds.

tnom = 27
temp = 27
method = trap
totiter = 26
traniter = 0
tranpoints = 0
accept = 0
rejected = 0
matrix size = 66
fillins = 35
solver = Normal
Matrix Compiler1:     218 opcodes
Matrix Compiler2: 5.18 KB object code size
